/*--------------------------------*- C++ -*----------------------------------*\
| =========                 |                                                 |
| \\      /  F ield         | OpenFOAM: The Open Source CFD Toolbox           |
|  \\    /   O peration     | Version:  v2406                                 |
|   \\  /    A nd           | Website:  www.openfoam.com                      |
|    \\/     M anipulation  |                                                 |
\*---------------------------------------------------------------------------*/
FoamFile
{
    version     2.0;
    format      ascii;
    class       dictionary;
    object      transportProperties;
}
// * * * * * * * * * * * * * * * * * * * * * * * * * * * * * * * * * * * * * //

phases          (fuel air);

fuel
{
    transportModel  Newtonian;
    nu              1.0e-06;
    rho             1000;
}

air
{
    transportModel  Newtonian;
    nu              1.5e-05;
    rho             1.225;
}

sigma           0.0261;


// ************************************************************************* //
